@<TRIPOS>MOLECULE
*****
 47 49 0 0 0
SMALL
GASTEIGER

@<TRIPOS>ATOM
      1 C           3.1468   -1.5621    1.1111 C.ar    1  UNL1        0.1205
      2 N           2.5760   -2.5426    0.3443 N.ar    1  UNL1       -0.2188
      3 C           1.6711   -2.1639   -0.5669 C.ar    1  UNL1        0.1472
      4 C           1.3131   -0.8004   -0.6761 C.ar    1  UNL1        0.1473
      5 C           1.9985    0.0819    0.1448 C.ar    1  UNL1        0.1674
      6 N           2.9311   -0.2238    1.0483 N.ar    1  UNL1       -0.2159
      7 N           1.5364    1.3265   -0.2319 N.ar    1  UNL1       -0.2855
      8 C           0.5716    1.1250   -1.1828 C.ar    1  UNL1        0.1004
      9 N           0.4116   -0.1468   -1.4724 N.ar    1  UNL1       -0.2306
     10 C           2.1398    2.5956    0.1399 C.3     1  UNL1        0.1667
     11 C           1.6200    3.2944    1.4036 C.3     1  UNL1        0.1285
     12 C           1.7158    4.7970    1.0524 C.3     1  UNL1        0.1135
     13 C           2.2803    4.8663   -0.3931 C.3     1  UNL1        0.1134
     14 O           1.9837    3.5598   -0.9303 O.3     1  UNL1       -0.3456
     15 C           3.8101    5.2004   -0.5147 C.3     1  UNL1        0.0879
     16 O           4.3886    5.3007   -1.8689 O.3     1  UNL1       -0.2837
     17 P           4.2730    6.6942   -2.7177 P.3     1  UNL1        0.4835
     18 O           2.8393    7.0813   -2.8497 O.2     1  UNL1       -0.2269
     19 O           5.1563    7.6588   -1.7911 O.3     1  UNL1       -0.3022
     20 O           5.0911    6.6540   -4.1922 O.3     1  UNL1       -0.1858
     21 P           4.5378    5.1548   -4.8547 P.3     1  UNL1        0.4918
     22 O           4.6774    5.7283   -6.2653 O.2     1  UNL1       -0.2265
     23 O           6.0113    4.5220   -4.5275 O.3     1  UNL1       -0.3019
     24 O           3.9844    3.6555   -5.5173 O.3     1  UNL1       -0.1859
     25 P           2.4518    3.2498   -4.8249 P.3     1  UNL1        0.4808
     26 O           2.3523    1.9624   -5.6373 O.2     1  UNL1       -0.2271
     27 O           3.1977    2.7996   -3.4531 O.3     1  UNL1       -0.3023
     28 O           0.9191    2.8442   -4.1326 O.3     1  UNL1       -0.3023
     29 O           2.4475    5.5976    1.9719 O.3     1  UNL1       -0.3864
     30 O           2.3492    2.9951    2.5972 O.3     1  UNL1       -0.3847
     31 N           1.1330   -3.1665   -1.4004 N.pl3   1  UNL1       -0.3413
     32 H           3.8632   -1.9177    1.8494 H       1  UNL1        0.1048
     33 H           0.0491    1.9442   -1.6566 H       1  UNL1        0.1030
     34 H           3.2142    2.3985    0.2320 H       1  UNL1        0.0866
     35 H           0.5675    3.0303    1.5976 H       1  UNL1        0.0665
     36 H           0.6892    5.1877    1.0451 H       1  UNL1        0.0647
     37 H           1.7139    5.6127   -0.9578 H       1  UNL1        0.0647
     38 H           4.3610    4.3972   -0.0046 H       1  UNL1        0.0592
     39 H           4.0322    6.1212    0.0354 H       1  UNL1        0.0592
     40 H           5.9998    7.2567   -1.5101 H       1  UNL1        0.2220
     41 H           6.6100    4.7630   -5.2615 H       1  UNL1        0.2220
     42 H           3.4423    1.8617   -3.5236 H       1  UNL1        0.2220
     43 H           0.6372    2.0496   -4.6371 H       1  UNL1        0.2220
     44 H           3.0321    5.0279    2.5023 H       1  UNL1        0.2100
     45 H           3.2979    2.9177    2.4009 H       1  UNL1        0.2101
     46 H           1.2249   -4.0857   -1.0348 H       1  UNL1        0.1438
     47 H           0.2718   -2.8950   -1.8634 H       1  UNL1        0.1438
@<TRIPOS>BOND
     1     1     2   ar
     2     2     3   ar
     3     3     4   ar
     4     4     5   ar
     5     5     6   ar
     6     1     6   ar
     7     5     7   ar
     8     7     8   ar
     9     8     9   ar
    10     4     9   ar
    11     7    10    1
    12    10    11    1
    13    11    12    1
    14    12    13    1
    15    13    14    1
    16    10    14    1
    17    13    15    1
    18    15    16    1
    19    16    17    1
    20    17    18    2
    21    17    19    1
    22    17    20    1
    23    20    21    1
    24    21    22    2
    25    21    23    1
    26    21    24    1
    27    24    25    1
    28    25    26    2
    29    25    27    1
    30    25    28    1
    31    12    29    1
    32    11    30    1
    33     3    31    1
    34     1    32    1
    35     8    33    1
    36    10    34    1
    37    11    35    1
    38    12    36    1
    39    13    37    1
    40    15    38    1
    41    15    39    1
    42    19    40    1
    43    23    41    1
    44    27    42    1
    45    28    43    1
    46    29    44    1
    47    30    45    1
    48    31    46    1
    49    31    47    1
