REMARK  15 active torsions:
REMARK  status: ('A' for Active; 'I' for Inactive)
REMARK    1  A    between atoms: C_3  and  N_31 
REMARK    2  A    between atoms: N_7  and  C_10 
REMARK    3  A    between atoms: C_11  and  O_30 
REMARK    4  A    between atoms: C_12  and  O_29 
REMARK    5  A    between atoms: C_13  and  C_15 
REMARK    6  A    between atoms: C_15  and  O_16 
REMARK    7  A    between atoms: O_16  and  P_17 
REMARK    8  A    between atoms: P_17  and  O_19 
REMARK    9  A    between atoms: P_17  and  O_20 
REMARK   10  A    between atoms: O_20  and  P_21 
REMARK   11  A    between atoms: P_21  and  O_23 
REMARK   12  A    between atoms: P_21  and  O_24 
REMARK   13  A    between atoms: O_24  and  P_25 
REMARK   14  A    between atoms: P_25  and  O_27 
REMARK   15  A    between atoms: P_25  and  O_28 
ROOT
ATOM      1  C   UNL d   1       2.140   2.596   0.140  0.00  0.00     0.253 C 
ATOM      2  C   UNL d   1       1.620   3.294   1.404  0.00  0.00     0.195 C 
ATOM      3  C   UNL d   1       1.716   4.797   1.052  0.00  0.00     0.178 C 
ATOM      4  C   UNL d   1       2.280   4.866  -0.393  0.00  0.00     0.178 C 
ATOM      5  O   UNL d   1       1.984   3.560  -0.930  0.00  0.00    -0.346 OA
ENDROOT
BRANCH   4   6
ATOM      6  C   UNL d   1       3.810   5.200  -0.515  0.00  0.00     0.206 C 
BRANCH   6   7
ATOM      7  O   UNL d   1       4.389   5.301  -1.869  0.00  0.00    -0.284 OA
BRANCH   7   8
ATOM      8  P   UNL d   1       4.273   6.694  -2.718  0.00  0.00     0.483 P 
ATOM      9  O   UNL d   1       2.839   7.081  -2.850  0.00  0.00    -0.227 OA
BRANCH   8  10
ATOM     10  O   UNL d   1       5.156   7.659  -1.791  0.00  0.00    -0.302 OA
ATOM     11  H   UNL d   1       6.000   7.257  -1.510  0.00  0.00     0.222 HD
ENDBRANCH   8  10
BRANCH   8  12
ATOM     12  O   UNL d   1       5.091   6.654  -4.192  0.00  0.00    -0.186 OA
BRANCH  12  13
ATOM     13  P   UNL d   1       4.538   5.155  -4.855  0.00  0.00     0.492 P 
ATOM     14  O   UNL d   1       4.677   5.728  -6.265  0.00  0.00    -0.227 OA
BRANCH  13  15
ATOM     15  O   UNL d   1       6.011   4.522  -4.527  0.00  0.00    -0.302 OA
ATOM     16  H   UNL d   1       6.610   4.763  -5.261  0.00  0.00     0.222 HD
ENDBRANCH  13  15
BRANCH  13  17
ATOM     17  O   UNL d   1       3.984   3.655  -5.517  0.00  0.00    -0.186 OA
BRANCH  17  18
ATOM     18  P   UNL d   1       2.452   3.250  -4.825  0.00  0.00     0.481 P 
ATOM     19  O   UNL d   1       2.352   1.962  -5.637  0.00  0.00    -0.227 OA
BRANCH  18  20
ATOM     20  O   UNL d   1       3.198   2.800  -3.453  0.00  0.00    -0.302 OA
ATOM     21  H   UNL d   1       3.442   1.862  -3.524  0.00  0.00     0.222 HD
ENDBRANCH  18  20
BRANCH  18  22
ATOM     22  O   UNL d   1       0.919   2.844  -4.133  0.00  0.00    -0.302 OA
ATOM     23  H   UNL d   1       0.637   2.050  -4.637  0.00  0.00     0.222 HD
ENDBRANCH  18  22
ENDBRANCH  17  18
ENDBRANCH  13  17
ENDBRANCH  12  13
ENDBRANCH   8  12
ENDBRANCH   7   8
ENDBRANCH   6   7
ENDBRANCH   4   6
BRANCH   3  24
ATOM     24  O   UNL d   1       2.447   5.598   1.972  0.00  0.00    -0.386 OA
ATOM     25  H   UNL d   1       3.032   5.028   2.502  0.00  0.00     0.210 HD
ENDBRANCH   3  24
BRANCH   2  26
ATOM     26  O   UNL d   1       2.349   2.995   2.597  0.00  0.00    -0.385 OA
ATOM     27  H   UNL d   1       3.298   2.918   2.401  0.00  0.00     0.210 HD
ENDBRANCH   2  26
BRANCH   1  28
ATOM     28  N   UNL d   1       1.536   1.327  -0.232  0.00  0.00    -0.285 N 
ATOM     29  C   UNL d   1       1.998   0.082   0.145  0.00  0.00     0.167 A 
ATOM     30  C   UNL d   1       1.313  -0.800  -0.676  0.00  0.00     0.147 A 
ATOM     31  N   UNL d   1       2.931  -0.224   1.048  0.00  0.00    -0.216 NA
ATOM     32  C   UNL d   1       1.671  -2.164  -0.567  0.00  0.00     0.147 A 
ATOM     33  N   UNL d   1       0.412  -0.147  -1.472  0.00  0.00    -0.231 NA
ATOM     34  N   UNL d   1       2.576  -2.543   0.344  0.00  0.00    -0.219 NA
ATOM     35  C   UNL d   1       3.147  -1.562   1.111  0.00  0.00     0.225 A 
ATOM     36  C   UNL d   1       0.572   1.125  -1.183  0.00  0.00     0.203 A 
BRANCH  32  37
ATOM     37  N   UNL d   1       1.133  -3.167  -1.400  0.00  0.00    -0.341 N 
ATOM     38  H   UNL d   1       1.225  -4.086  -1.035  0.00  0.00     0.144 HD
ATOM     39  H   UNL d   1       0.272  -2.895  -1.863  0.00  0.00     0.144 HD
ENDBRANCH  32  37
ENDBRANCH   1  28
TORSDOF 15
